LAMMPS (29 Aug 2024 - Update 1)
Loaded 1 plugins from C:\Users\mobal\AppData\Local\LAMMPS 64-bit 29Aug2024\plugins
# LAMMPS input script for GO surface segregation in PEEK
# Based on coarse-grained models

# --- Initialization ---
units           real
atom_style      full
boundary        p p p    # periodic in x,y,z
bond_style      harmonic
angle_style     harmonic
pair_style      lj/cut/coul/long 12.0
kspace_style    pppm 1.0e-4
special_bonds   lj 0.0 0.0 0.5

# --- System definition ---
read_data       data.gograft
Reading data file ...
  orthogonal box = (0 0 0) to (200 200 300)
  reading atoms ...
  20441 atoms
  scanning bonds ...
  scanning angles ...
  orthogonal box = (0 0 0) to (200 200 300)
  reading bonds ...
  25220 bonds
  reading angles ...
  24958 angles
Finding 1-2 1-3 1-4 neighbors ...
     4 = max # of 1-2 neighbors
    12 = max # of 1-3 neighbors
    48 = max # of 1-4 neighbors
    24 = max # of special neighbors

# --- Force field parameters ---
# LJ parameters for PEEK beads
pair_coeff      1 1 0.100 3.95    # ether-linked phenyl bead
pair_coeff      2 2 0.120 4.10    # ketone-linked phenyl bead

# LJ parameters for GO beads
pair_coeff      3 3 0.150 3.80    # GO carbon bead
pair_coeff      4 4 0.200 3.60    # GO oxygen-containing group bead

# LJ parameters for iC beads
pair_coeff      5 5 0.180 4.20    # 3-linked b-D-galactopyranose bead
pair_coeff      6 6 0.220 4.30    # 4-linked a-D-galactopyranose with sulfate bead

# Define pair coefficients for reactive sites
pair_coeff 7 7 0.190 3.90    # Reactive site parameters
# Cross interactions with reactive sites
pair_coeff 1 7 0.145 3.925   # Or calculate using mixing rules
pair_coeff 2 7 0.155 4.00
pair_coeff 3 7 0.170 3.85
pair_coeff 4 7 0.195 3.75
pair_coeff 5 7 0.185 4.05
pair_coeff 6 7 0.205 4.10

# Bond parameters
bond_coeff      1 30.0 1.53    # PEEK backbone bonds
bond_coeff      2 40.0 1.40    # GO sheet bonds
bond_coeff      3 35.0 1.45    # iC backbone bonds
bond_coeff      4 50.0 1.35    # Grafting bonds (iC to GO/PEEK)

# Angle parameters
angle_coeff     1 20.0 120.0   # PEEK backbone angles
angle_coeff     2 30.0 120.0   # GO sheet angles
angle_coeff     3 25.0 110.0   # iC backbone angles

# --- Simulation settings ---
neighbor        2.0 bin
neigh_modify    every 1 delay 0 check yes

# --- Initial minimization ---
thermo          1000
thermo_style    custom step temp press pe ke etotal density

minimize        1.0e-4 1.0e-6 10000 100000

CITE-CITE-CITE-CITE-CITE-CITE-CITE-CITE-CITE-CITE-CITE-CITE-CITE

Your simulation uses code contributions which should be cited:

- Type Label Framework: https://doi.org/10.1021/acs.jpcb.3c08419

@Article{Gissinger24,
 author = {Jacob R. Gissinger, Ilia Nikiforov, Yaser Afshar, Brendon Waters, Moon-ki Choi, Daniel S. Karls, Alexander Stukowski, Wonpil Im, Hendrik Heinz, Axel Kohlmeyer, and Ellad B. Tadmor},
 title = {Type Label Framework for Bonded Force Fields in LAMMPS},
 journal = {J. Phys. Chem. B},
 year =    2024,
 volume =  128,
 number =  13,
 pages =   {3282â€“-3297}
}

CITE-CITE-CITE-CITE-CITE-CITE-CITE-CITE-CITE-CITE-CITE-CITE-CITE

PPPM initialization ...
  G vector (1/distance) = 0.098282116
  grid = 18 18 27
  stencil order = 5
  estimated absolute RMS force accuracy = 0.034055893
  estimated relative force accuracy = 0.00010255831
  3d grid and FFT values/proc = 16928 8748
Generated 15 of 21 mixed pair_coeff terms from geometric mixing rule
Step          Temp          Press          PotEng         KinEng         TotEng        Density
0   0              6.8433157e+25  2.9940822e+27  0              2.9940822e+27  0.22201406
Loop time of 272.205 on 1 procs for 1185 steps with 20441 atoms

Minimization stats:
  Stopping criterion = energy tolerance
  Energy initial, next-to-last, final =
  Force two-norm initial, final = 1.4466572e+30 104.26578
  Force max component initial, final = 5.8222914e+29 33.841881
  Final line search alpha, max atom move = 0.0036572857 0.12376943
  Iterations, force evaluations = 1185 1258

reset_timestep  0

# --- Equilibration at processing temperature ---
velocity        all create 653.0 12345 mom yes rot yes dist gaussian

fix             1 all npt temp 653.0 653.0 100.0 x 1.0 1.0 1000.0 y 1.0 1.0 1000.0 couple xy
timestep        10.0
thermo          1000
dump            1 all custom 10000 dump.gograft.equilibration id type x y z

run             1000    # 10 ns
PPPM initialization ...
  G vector (1/distance) = 0.098282116
  grid = 18 18 27
  stencil order = 5
  estimated absolute RMS force accuracy = 0.034055893
  estimated relative force accuracy = 0.00010255831
  3d grid and FFT values/proc = 16928 8748
Generated 15 of 21 mixed pair_coeff terms from geometric mixing rule
Step          Temp          Press          PotEng         KinEng         TotEng        Density
0   653            279.5295       128873.65      39785.826      168659.48      0.22201406
Loop time of 141.332 on 1 procs for 1000 steps with 20441 atoms

# --- Production run at processing temperature ---
unfix           1
fix             1 all npt temp 653.0 653.0 100.0 x 1.0 1.0 1000.0 y 1.0 1.0 1000.0 couple xy
undump          1
dump            1 all custom 10000 dump.gograft.production id type x y z

run             10000   # 100 ns
PPPM initialization ...
  G vector (1/distance) = 0.090039681
  grid = 24 24 24
  stencil order = 5
  estimated absolute RMS force accuracy = 0.028001018
  estimated relative force accuracy = 8.4324234e-05
  3d grid and FFT values/proc = 24389 13824
Generated 15 of 21 mixed pair_coeff terms from geometric mixing rule
Step          Temp          Press          PotEng         KinEng         TotEng        Density
1000   650.57854      21.744718      77751.769      39638.292      117390.06      0.095982531
Averages over the last 6 of 11 rows, steps 6000 to 11000:
Temp Press PotEng KinEng TotEng Density
654.276 1.4205 72730 39863.5 112594 0.00599038
Loop time of 2814.68 on 1 procs for 10000 steps with 20441 atoms

# --- Cooling to room temperature ---
unfix           1
fix             1 all npt temp 653.0 300.0 100.0 x 1.0 1.0 1000.0 y 1.0 1.0 1000.0 couple xy
undump          1
dump            1 all custom 10000 dump.gograft.cooling id type x y z

run             3530    # 35.3 ns (cooling rate of 10 K/ns)
PPPM initialization ...
  G vector (1/distance) = 0.13281983
  grid = 240 240 48
  stencil order = 5
  estimated absolute RMS force accuracy = 0.0014816823
  estimated relative force accuracy = 4.4620423e-06
  3d grid and FFT values/proc = 3181325 2764800
Generated 15 of 21 mixed pair_coeff terms from geometric mixing rule
Step          Temp          Press          PotEng         KinEng         TotEng        Density
11000   657.37471      0.97880341     96745.742      40052.367      136798.11      0.004182143
